unknown|ligand|mol|1|dock3
  -GOLD-  11 11713 33D 1   1.00000     0.00000

 47 49  0  0  0  0  0  0  0  0  2 V2000
   31.8489    8.5058   68.1888 C   0  0  0  0  0  0  0  0  0  0  0  0
   31.0448    8.5865   66.9037 C   0  0  0  0  0  0  0  0  0  0  0  0
   31.9252    8.9112   65.7104 C   0  0  0  0  0  0  0  0  0  0  0  0
   30.3447    7.3221   66.6759 N   0  0  0  0  0  0  0  0  0  0  0  0
   29.3074    7.1711   65.7553 C   0  0  0  0  0  0  0  0  0  0  0  0
   28.9139    8.2703   65.0067 C   0  0  0  0  0  0  0  0  0  0  0  0
   27.8825    8.1643   64.0828 C   0  0  0  0  0  0  0  0  0  0  0  0
   27.4961    9.2809   63.3411 N   0  0  0  0  0  0  0  0  0  0  0  0
   26.4315    9.2613   62.3489 C   0  0  0  0  0  0  0  0  0  0  0  0
   25.5282    8.8751   62.8212 H   0  0  0  0  0  0  0  0  0  0  0  0
   26.1453   10.6694   61.8348 C   0  0  0  0  0  0  0  0  0  0  0  0
   25.0577   10.6655   60.7744 C   0  0  0  0  0  0  0  0  0  0  0  0
   25.4166    9.7476   59.6095 C   0  0  0  0  0  0  0  0  0  0  0  0
   26.2991   10.1376   59.1020 H   0  0  0  0  0  0  0  0  0  0  0  0
   24.2948    9.7114   58.6207 N   0  3  0  0  0  0  0  0  0  0  0  0
   23.5781   10.3747   58.8744 H   0  0  0  0  0  0  0  0  0  0  0  0
   24.6296    9.9416   57.6973 H   0  0  0  0  0  0  0  0  0  0  0  0
   23.8809    8.7918   58.5894 H   0  0  0  0  0  0  0  0  0  0  0  0
   25.7093    8.3398   60.1203 C   0  0  0  0  0  0  0  0  0  0  0  0
   26.7959    8.3482   61.1817 C   0  0  0  0  0  0  0  0  0  0  0  0
   27.2167    7.0242   63.8453 N   0  0  0  0  0  0  0  0  0  0  0  0
   27.5974    5.9559   64.5645 C   0  0  0  0  0  0  0  0  0  0  0  0
   27.1373    4.6393   64.5807 C   0  0  0  0  0  0  0  0  0  0  0  0
   26.0898    4.1034   63.7811 C   0  0  0  0  0  0  0  0  0  0  0  0
   25.2412    3.7124   63.1272 N   0  0  0  0  0  0  0  0  0  0  0  0
   27.9041    3.9874   65.5210 C   0  0  0  0  0  0  0  0  0  0  0  0
   28.7982    4.7963   66.0843 N   0  0  0  0  0  0  0  0  0  0  0  0
   28.6078    6.0076   65.4943 N   0  0  0  0  0  0  0  0  0  0  0  0
   32.5802    7.7008   68.1168 H   0  0  0  0  0  0  0  0  0  0  0  0
   32.3700    9.4480   68.3580 H   0  0  0  0  0  0  0  0  0  0  0  0
   31.1831    8.3096   69.0294 H   0  0  0  0  0  0  0  0  0  0  0  0
   30.3009    9.3756   67.0104 H   0  0  0  0  0  0  0  0  0  0  0  0
   31.3146    8.9858   64.8108 H   0  0  0  0  0  0  0  0  0  0  0  0
   32.4356    9.8600   65.8758 H   0  0  0  0  0  0  0  0  0  0  0  0
   32.6677    8.1247   65.5744 H   0  0  0  0  0  0  0  0  0  0  0  0
   30.8646    6.5281   66.8789 H   0  0  0  0  0  0  0  0  0  0  0  0
   29.4121    9.2184   65.1461 H   0  0  0  0  0  0  0  0  0  0  0  0
   28.1618    9.9768   63.2243 H   0  0  0  0  0  0  0  0  0  0  0  0
   25.8363   11.2997   62.6688 H   0  0  0  0  0  0  0  0  0  0  0  0
   27.0590   11.0906   61.4155 H   0  0  0  0  0  0  0  0  0  0  0  0
   24.1193   10.3321   61.2178 H   0  0  0  0  0  0  0  0  0  0  0  0
   24.9121   11.6788   60.4004 H   0  0  0  0  0  0  0  0  0  0  0  0
   24.7974    7.9129   60.5378 H   0  0  0  0  0  0  0  0  0  0  0  0
   26.0227    7.7133   59.2852 H   0  0  0  0  0  0  0  0  0  0  0  0
   27.7324    8.6880   60.7395 H   0  0  0  0  0  0  0  0  0  0  0  0
   26.9478    7.3347   61.5533 H   0  0  0  0  0  0  0  0  0  0  0  0
   27.8126    2.9456   65.7903 H   0  0  0  0  0  0  0  0  0  0  0  0
  1  2  1  0  0  0  0
  1 29  1  0  0  0  0
  1 30  1  0  0  0  0
  1 31  1  0  0  0  0
  2  3  1  0  0  0  0
  2  4  1  0  0  0  0
  2 32  1  0  0  0  0
  3 33  1  0  0  0  0
  3 34  1  0  0  0  0
  3 35  1  0  0  0  0
  4  5  1  0  0  0  0
  4 36  1  0  0  0  0
  5 28  1  0  0  0  0
  5  6  2  0  0  0  0
  6  7  1  0  0  0  0
  6 37  1  0  0  0  0
  7  8  1  0  0  0  0
  7 21  2  0  0  0  0
  8  9  1  0  0  0  0
  8 38  1  0  0  0  0
  9 10  1  0  0  0  0
  9 20  1  0  0  0  0
  9 11  1  0  0  0  0
 11 12  1  0  0  0  0
 11 39  1  0  0  0  0
 11 40  1  0  0  0  0
 12 13  1  0  0  0  0
 12 41  1  0  0  0  0
 12 42  1  0  0  0  0
 13 14  1  0  0  0  0
 13 15  1  0  0  0  0
 13 19  1  0  0  0  0
 15 16  1  0  0  0  0
 15 17  1  0  0  0  0
 15 18  1  0  0  0  0
 19 20  1  0  0  0  0
 19 43  1  0  0  0  0
 19 44  1  0  0  0  0
 20 45  1  0  0  0  0
 20 46  1  0  0  0  0
 21 22  1  0  0  0  0
 22 28  1  0  0  0  0
 22 23  2  0  0  0  0
 23 24  1  0  0  0  0
 23 26  1  0  0  0  0
 24 25  3  0  0  0  0
 26 27  2  0  0  0  0
 26 47  1  0  0  0  0
 27 28  1  0  0  0  0
M  CHG  1  15   1
M  END
> <Gold.Version>
5.1

> <Gold.Id.Protein>
unknown|15055|pdb

> <Gold.PLP.Fitness>
60.0805

> <Gold.PLP.PLP>
-60.4378

> <Gold.PLP.part.hbond>
-5.6549

> <Gold.PLP.part.metal>
0.0000

> <Gold.PLP.part.buried>
-4.3640

> <Gold.PLP.part.nonpolar>
-46.0310

> <Gold.PLP.part.repulsive>
0.0000

> <Gold.PLP.ligand.clash>
0.0000

> <Gold.PLP.ligand.torsion>
0.1786

> <Gold.Chemscore.Hbonds>
donor molecule, donor type, donor heavy atom, donor atom, acceptor molecule, acceptor atom, score
      L1  H     4    36       P1   605  1.00

> <Gold.Protein.ActiveResidues>
 GLU8    LYS9    ILE10   GLY11   GLU12   GLY13   THR14   TYR15   GLY16   VAL17  
 VAL18   TYR19   LYS20   VAL30   ALA31   LEU32   LYS33   VAL64   LYS65   LEU66  
 LEU78   VAL79   PHE80   GLU81   PHE82   LEU83   HIS84   GLN85   ASP86   LEU87  
 LYS89   HIS125  ASP127  LYS129  PRO130  GLN131  ASN132  LEU133  LEU134  ILE135 
 LEU143  ALA144  ASP145  PHE146  LEU148  GLU162  LEU298 

> <Gold.Protein.RotatedAtoms>

$$$$
unknown|ligand|mol|1|dock1
  -GOLD-  11 11713 33D 1   1.00000     0.00000

 47 49  0  0  0  0  0  0  0  0  2 V2000
   31.6148    8.6766   68.2261 C   0  0  0  0  0  0  0  0  0  0  0  0
   31.0741    8.5993   66.8096 C   0  0  0  0  0  0  0  0  0  0  0  0
   32.1803    8.7336   65.7786 C   0  0  0  0  0  0  0  0  0  0  0  0
   30.3657    7.3337   66.6169 N   0  0  0  0  0  0  0  0  0  0  0  0
   29.3151    7.1689   65.7140 C   0  0  0  0  0  0  0  0  0  0  0  0
   28.9157    8.2547   64.9490 C   0  0  0  0  0  0  0  0  0  0  0  0
   27.8711    8.1347   64.0417 C   0  0  0  0  0  0  0  0  0  0  0  0
   27.4791    9.2380   63.2832 N   0  0  0  0  0  0  0  0  0  0  0  0
   26.4007    9.2032   62.3065 C   0  0  0  0  0  0  0  0  0  0  0  0
   25.5169    8.7809   62.7846 H   0  0  0  0  0  0  0  0  0  0  0  0
   26.0637   10.6107   61.8224 C   0  0  0  0  0  0  0  0  0  0  0  0
   24.9609   10.5923   60.7781 C   0  0  0  0  0  0  0  0  0  0  0  0
   25.3301    9.7068   59.5915 C   0  0  0  0  0  0  0  0  0  0  0  0
   26.1925   10.1329   59.0784 H   0  0  0  0  0  0  0  0  0  0  0  0
   24.1951    9.6536   58.6186 N   0  3  0  0  0  0  0  0  0  0  0  0
   23.3696   10.0774   59.0147 H   0  0  0  0  0  0  0  0  0  0  0  0
   24.4318   10.1479   57.7716 H   0  0  0  0  0  0  0  0  0  0  0  0
   23.9788    8.6976   58.3798 H   0  0  0  0  0  0  0  0  0  0  0  0
   25.6735    8.2998   60.0721 C   0  0  0  0  0  0  0  0  0  0  0  0
   26.7752    8.3228   61.1175 C   0  0  0  0  0  0  0  0  0  0  0  0
   27.1973    6.9930   63.8364 N   0  0  0  0  0  0  0  0  0  0  0  0
   27.5836    5.9377   64.5716 C   0  0  0  0  0  0  0  0  0  0  0  0
   27.1183    4.6237   64.6205 C   0  0  0  0  0  0  0  0  0  0  0  0
   26.0575    4.0766   63.8465 C   0  0  0  0  0  0  0  0  0  0  0  0
   25.2070    3.6047   63.2511 N   0  0  0  0  0  0  0  0  0  0  0  0
   27.8954    3.9874   65.5631 C   0  0  0  0  0  0  0  0  0  0  0  0
   28.8006    4.8035   66.0976 N   0  0  0  0  0  0  0  0  0  0  0  0
   28.6071    6.0035   65.4860 N   0  0  0  0  0  0  0  0  0  0  0  0
   32.3040    7.8510   68.4036 H   0  0  0  0  0  0  0  0  0  0  0  0
   32.1423    9.6195   68.3689 H   0  0  0  0  0  0  0  0  0  0  0  0
   30.7925    8.6152   68.9391 H   0  0  0  0  0  0  0  0  0  0  0  0
   30.3652    9.4142   66.6653 H   0  0  0  0  0  0  0  0  0  0  0  0
   31.7560    8.6987   64.7754 H   0  0  0  0  0  0  0  0  0  0  0  0
   32.6983    9.6829   65.9149 H   0  0  0  0  0  0  0  0  0  0  0  0
   32.8936    7.9173   65.8938 H   0  0  0  0  0  0  0  0  0  0  0  0
   30.8850    6.5417   66.8286 H   0  0  0  0  0  0  0  0  0  0  0  0
   29.4198    9.2031   65.0624 H   0  0  0  0  0  0  0  0  0  0  0  0
   28.1460    9.9284   63.1433 H   0  0  0  0  0  0  0  0  0  0  0  0
   25.7482   11.2162   62.6723 H   0  0  0  0  0  0  0  0  0  0  0  0
   26.9577   11.0674   61.3977 H   0  0  0  0  0  0  0  0  0  0  0  0
   24.0400   10.2221   61.2289 H   0  0  0  0  0  0  0  0  0  0  0  0
   24.7786   11.6071   60.4249 H   0  0  0  0  0  0  0  0  0  0  0  0
   24.7814    7.8376   60.4949 H   0  0  0  0  0  0  0  0  0  0  0  0
   25.9932    7.6983   59.2212 H   0  0  0  0  0  0  0  0  0  0  0  0
   27.6941    8.6993   60.6680 H   0  0  0  0  0  0  0  0  0  0  0  0
   26.9637    7.3081   61.4682 H   0  0  0  0  0  0  0  0  0  0  0  0
   27.8034    2.9516   65.8545 H   0  0  0  0  0  0  0  0  0  0  0  0
  1  2  1  0  0  0  0
  1 29  1  0  0  0  0
  1 30  1  0  0  0  0
  1 31  1  0  0  0  0
  2  3  1  0  0  0  0
  2  4  1  0  0  0  0
  2 32  1  0  0  0  0
  3 33  1  0  0  0  0
  3 34  1  0  0  0  0
  3 35  1  0  0  0  0
  4  5  1  0  0  0  0
  4 36  1  0  0  0  0
  5 28  1  0  0  0  0
  5  6  2  0  0  0  0
  6  7  1  0  0  0  0
  6 37  1  0  0  0  0
  7  8  1  0  0  0  0
  7 21  2  0  0  0  0
  8  9  1  0  0  0  0
  8 38  1  0  0  0  0
  9 10  1  0  0  0  0
  9 20  1  0  0  0  0
  9 11  1  0  0  0  0
 11 12  1  0  0  0  0
 11 39  1  0  0  0  0
 11 40  1  0  0  0  0
 12 13  1  0  0  0  0
 12 41  1  0  0  0  0
 12 42  1  0  0  0  0
 13 14  1  0  0  0  0
 13 15  1  0  0  0  0
 13 19  1  0  0  0  0
 15 16  1  0  0  0  0
 15 17  1  0  0  0  0
 15 18  1  0  0  0  0
 19 20  1  0  0  0  0
 19 43  1  0  0  0  0
 19 44  1  0  0  0  0
 20 45  1  0  0  0  0
 20 46  1  0  0  0  0
 21 22  1  0  0  0  0
 22 28  1  0  0  0  0
 22 23  2  0  0  0  0
 23 24  1  0  0  0  0
 23 26  1  0  0  0  0
 24 25  3  0  0  0  0
 26 27  2  0  0  0  0
 26 47  1  0  0  0  0
 27 28  1  0  0  0  0
M  CHG  1  15   1
M  END
> <Gold.Version>
5.1

> <Gold.Id.Protein>
unknown|15055|pdb

> <Gold.PLP.Fitness>
59.6673

> <Gold.PLP.PLP>
-60.5310

> <Gold.PLP.part.hbond>
-5.5099

> <Gold.PLP.part.metal>
0.0000

> <Gold.PLP.part.buried>
-4.0948

> <Gold.PLP.part.nonpolar>
-46.5907

> <Gold.PLP.part.repulsive>
0.0000

> <Gold.PLP.ligand.clash>
0.0000

> <Gold.PLP.ligand.torsion>
0.4318

> <Gold.Chemscore.Hbonds>
donor molecule, donor type, donor heavy atom, donor atom, acceptor molecule, acceptor atom, score
      L1  H     4    36       P1   605  1.00

> <Gold.Protein.ActiveResidues>
 GLU8    LYS9    ILE10   GLY11   GLU12   GLY13   THR14   TYR15   GLY16   VAL17  
 VAL18   TYR19   LYS20   VAL30   ALA31   LEU32   LYS33   VAL64   LYS65   LEU66  
 LEU78   VAL79   PHE80   GLU81   PHE82   LEU83   HIS84   GLN85   ASP86   LEU87  
 LYS89   HIS125  ASP127  LYS129  PRO130  GLN131  ASN132  LEU133  LEU134  ILE135 
 LEU143  ALA144  ASP145  PHE146  LEU148  GLU162  LEU298 

> <Gold.Protein.RotatedAtoms>

$$$$
unknown|ligand|mol|1|dock2
  -GOLD-  11 11713 33D 1   1.00000     0.00000

 47 49  0  0  0  0  0  0  0  0  2 V2000
   31.7980    8.5293   68.0666 C   0  0  0  0  0  0  0  0  0  0  0  0
   31.0591    8.5464   66.7406 C   0  0  0  0  0  0  0  0  0  0  0  0
   31.9995    8.8065   65.5776 C   0  0  0  0  0  0  0  0  0  0  0  0
   30.3638    7.2743   66.5432 N   0  0  0  0  0  0  0  0  0  0  0  0
   29.2809    7.1146   65.6782 C   0  0  0  0  0  0  0  0  0  0  0  0
   28.8343    8.2125   64.9579 C   0  0  0  0  0  0  0  0  0  0  0  0
   27.7565    8.0978   64.0896 C   0  0  0  0  0  0  0  0  0  0  0  0
   27.3171    9.2131   63.3760 N   0  0  0  0  0  0  0  0  0  0  0  0
   26.2015    9.1848   62.4418 C   0  0  0  0  0  0  0  0  0  0  0  0
   25.4250    8.5396   62.8527 H   0  0  0  0  0  0  0  0  0  0  0  0
   25.6195   10.5827   62.2518 C   0  0  0  0  0  0  0  0  0  0  0  0
   24.4731   10.5788   61.2552 C   0  0  0  0  0  0  0  0  0  0  0  0
   24.9057   10.0062   59.9086 C   0  0  0  0  0  0  0  0  0  0  0  0
   25.6584   10.6581   59.4648 H   0  0  0  0  0  0  0  0  0  0  0  0
   23.7373    9.9500   58.9762 N   0  3  0  0  0  0  0  0  0  0  0  0
   23.1680   10.7773   59.0723 H   0  0  0  0  0  0  0  0  0  0  0  0
   24.0510    9.8884   58.0194 H   0  0  0  0  0  0  0  0  0  0  0  0
   23.1642    9.1441   59.1761 H   0  0  0  0  0  0  0  0  0  0  0  0
   25.4937    8.6106   60.0951 C   0  0  0  0  0  0  0  0  0  0  0  0
   26.6383    8.6184   61.0937 C   0  0  0  0  0  0  0  0  0  0  0  0
   27.0933    6.9505   63.8814 N   0  0  0  0  0  0  0  0  0  0  0  0
   27.5252    5.8835   64.5732 C   0  0  0  0  0  0  0  0  0  0  0  0
   27.0833    4.5611   64.6063 C   0  0  0  0  0  0  0  0  0  0  0  0
   26.0014    4.0158   63.8606 C   0  0  0  0  0  0  0  0  0  0  0  0
   25.1525    3.5920   63.2279 N   0  0  0  0  0  0  0  0  0  0  0  0
   27.9072    3.9143   65.5008 C   0  0  0  0  0  0  0  0  0  0  0  0
   28.8198    4.7319   66.0203 N   0  0  0  0  0  0  0  0  0  0  0  0
   28.5831    5.9436   65.4481 N   0  0  0  0  0  0  0  0  0  0  0  0
   32.5273    7.7192   68.0723 H   0  0  0  0  0  0  0  0  0  0  0  0
   32.3156    9.4771   68.2131 H   0  0  0  0  0  0  0  0  0  0  0  0
   31.0902    8.3786   68.8819 H   0  0  0  0  0  0  0  0  0  0  0  0
   30.3155    9.3424   66.7695 H   0  0  0  0  0  0  0  0  0  0  0  0
   31.4347    8.8367   64.6460 H   0  0  0  0  0  0  0  0  0  0  0  0
   32.5066    9.7609   65.7194 H   0  0  0  0  0  0  0  0  0  0  0  0
   32.7432    8.0117   65.5191 H   0  0  0  0  0  0  0  0  0  0  0  0
   30.9037    6.4861   66.7136 H   0  0  0  0  0  0  0  0  0  0  0  0
   29.3273    9.1661   65.0760 H   0  0  0  0  0  0  0  0  0  0  0  0
   27.9669    9.9181   63.2279 H   0  0  0  0  0  0  0  0  0  0  0  0
   25.2638   10.9565   63.2121 H   0  0  0  0  0  0  0  0  0  0  0  0
   26.4038   11.2528   61.8997 H   0  0  0  0  0  0  0  0  0  0  0  0
   23.6502    9.9832   61.6506 H   0  0  0  0  0  0  0  0  0  0  0  0
   24.1131   11.5976   61.1124 H   0  0  0  0  0  0  0  0  0  0  0  0
   24.7121    7.9358   60.4442 H   0  0  0  0  0  0  0  0  0  0  0  0
   25.8528    8.2414   59.1345 H   0  0  0  0  0  0  0  0  0  0  0  0
   27.4583    9.2197   60.7010 H   0  0  0  0  0  0  0  0  0  0  0  0
   27.0043    7.6013   61.2339 H   0  0  0  0  0  0  0  0  0  0  0  0
   27.8433    2.8701   65.7686 H   0  0  0  0  0  0  0  0  0  0  0  0
  1  2  1  0  0  0  0
  1 29  1  0  0  0  0
  1 30  1  0  0  0  0
  1 31  1  0  0  0  0
  2  3  1  0  0  0  0
  2  4  1  0  0  0  0
  2 32  1  0  0  0  0
  3 33  1  0  0  0  0
  3 34  1  0  0  0  0
  3 35  1  0  0  0  0
  4  5  1  0  0  0  0
  4 36  1  0  0  0  0
  5 28  1  0  0  0  0
  5  6  2  0  0  0  0
  6  7  1  0  0  0  0
  6 37  1  0  0  0  0
  7  8  1  0  0  0  0
  7 21  2  0  0  0  0
  8  9  1  0  0  0  0
  8 38  1  0  0  0  0
  9 10  1  0  0  0  0
  9 20  1  0  0  0  0
  9 11  1  0  0  0  0
 11 12  1  0  0  0  0
 11 39  1  0  0  0  0
 11 40  1  0  0  0  0
 12 13  1  0  0  0  0
 12 41  1  0  0  0  0
 12 42  1  0  0  0  0
 13 14  1  0  0  0  0
 13 15  1  0  0  0  0
 13 19  1  0  0  0  0
 15 16  1  0  0  0  0
 15 17  1  0  0  0  0
 15 18  1  0  0  0  0
 19 20  1  0  0  0  0
 19 43  1  0  0  0  0
 19 44  1  0  0  0  0
 20 45  1  0  0  0  0
 20 46  1  0  0  0  0
 21 22  1  0  0  0  0
 22 28  1  0  0  0  0
 22 23  2  0  0  0  0
 23 24  1  0  0  0  0
 23 26  1  0  0  0  0
 24 25  3  0  0  0  0
 26 27  2  0  0  0  0
 26 47  1  0  0  0  0
 27 28  1  0  0  0  0
M  CHG  1  15   1
M  END
> <Gold.Version>
5.1

> <Gold.Id.Protein>
unknown|15055|pdb

> <Gold.PLP.Fitness>
59.3967

> <Gold.PLP.PLP>
-60.5487

> <Gold.PLP.part.hbond>
-4.0000

> <Gold.PLP.part.metal>
0.0000

> <Gold.PLP.part.buried>
-4.1090

> <Gold.PLP.part.nonpolar>
-48.5418

> <Gold.PLP.part.repulsive>
0.0000

> <Gold.PLP.ligand.clash>
0.0000

> <Gold.PLP.ligand.torsion>
0.5760

> <Gold.Chemscore.Hbonds>
donor molecule, donor type, donor heavy atom, donor atom, acceptor molecule, acceptor atom, score
      L1  H     4    36       P1   605  1.00

> <Gold.Protein.ActiveResidues>
 GLU8    LYS9    ILE10   GLY11   GLU12   GLY13   THR14   TYR15   GLY16   VAL17  
 VAL18   TYR19   LYS20   VAL30   ALA31   LEU32   LYS33   VAL64   LYS65   LEU66  
 LEU78   VAL79   PHE80   GLU81   PHE82   LEU83   HIS84   GLN85   ASP86   LEU87  
 LYS89   HIS125  ASP127  LYS129  PRO130  GLN131  ASN132  LEU133  LEU134  ILE135 
 LEU143  ALA144  ASP145  PHE146  LEU148  GLU162  LEU298 

> <Gold.Protein.RotatedAtoms>

$$$$
unknown|ligand|mol|1|dock5
  -GOLD-  11 11713 33D 1   1.00000     0.00000

 47 49  0  0  0  0  0  0  0  0  2 V2000
   29.1145   14.7265   62.3439 C   0  0  0  0  0  0  0  0  0  0  0  0
   27.6158   14.9071   62.5042 C   0  0  0  0  0  0  0  0  0  0  0  0
   27.1903   16.3381   62.2291 C   0  0  0  0  0  0  0  0  0  0  0  0
   26.9070   13.9959   61.6052 N   0  0  0  0  0  0  0  0  0  0  0  0
   26.9987   12.6063   61.6878 C   0  0  0  0  0  0  0  0  0  0  0  0
   27.7974   12.0474   62.6743 C   0  0  0  0  0  0  0  0  0  0  0  0
   27.9200   10.6687   62.7884 C   0  0  0  0  0  0  0  0  0  0  0  0
   28.7311   10.1230   63.7836 N   0  0  0  0  0  0  0  0  0  0  0  0
   28.9144    8.6927   63.9806 C   0  0  0  0  0  0  0  0  0  0  0  0
   29.2750    8.2603   63.0473 H   0  0  0  0  0  0  0  0  0  0  0  0
   29.9489    8.4250   65.0701 C   0  0  0  0  0  0  0  0  0  0  0  0
   30.1311    6.9365   65.3124 C   0  0  0  0  0  0  0  0  0  0  0  0
   28.8096    6.2631   65.6708 C   0  0  0  0  0  0  0  0  0  0  0  0
   28.4498    6.6580   66.6211 H   0  0  0  0  0  0  0  0  0  0  0  0
   29.0119    4.7896   65.8311 N   0  3  0  0  0  0  0  0  0  0  0  0
   28.3051    4.3993   66.4360 H   0  0  0  0  0  0  0  0  0  0  0  0
   28.9575    4.3258   64.9368 H   0  0  0  0  0  0  0  0  0  0  0  0
   29.9168    4.5990   66.2344 H   0  0  0  0  0  0  0  0  0  0  0  0
   27.7706    6.5335   64.5864 C   0  0  0  0  0  0  0  0  0  0  0  0
   27.5928    8.0227   64.3457 C   0  0  0  0  0  0  0  0  0  0  0  0
   27.2874    9.8010   61.9844 N   0  0  0  0  0  0  0  0  0  0  0  0
   26.5091   10.3375   61.0305 C   0  0  0  0  0  0  0  0  0  0  0  0
   25.7218    9.7509   60.0398 C   0  0  0  0  0  0  0  0  0  0  0  0
   25.5604    8.3566   59.8081 C   0  0  0  0  0  0  0  0  0  0  0  0
   25.4060    7.2479   59.5903 N   0  0  0  0  0  0  0  0  0  0  0  0
   25.1484   10.7967   59.3507 C   0  0  0  0  0  0  0  0  0  0  0  0
   25.5192   11.9785   59.8373 N   0  0  0  0  0  0  0  0  0  0  0  0
   26.3568   11.6939   60.8713 N   0  0  0  0  0  0  0  0  0  0  0  0
   29.4044   14.9424   61.3155 H   0  0  0  0  0  0  0  0  0  0  0  0
   29.6419   15.4054   63.0138 H   0  0  0  0  0  0  0  0  0  0  0  0
   29.3907   13.7000   62.5850 H   0  0  0  0  0  0  0  0  0  0  0  0
   27.3451   14.6561   63.5295 H   0  0  0  0  0  0  0  0  0  0  0  0
   26.1152   16.4383   62.3767 H   0  0  0  0  0  0  0  0  0  0  0  0
   27.7090   17.0143   62.9087 H   0  0  0  0  0  0  0  0  0  0  0  0
   27.4367   16.6056   61.2015 H   0  0  0  0  0  0  0  0  0  0  0  0
   26.0900   14.3557   61.2243 H   0  0  0  0  0  0  0  0  0  0  0  0
   28.3315   12.6906   63.3581 H   0  0  0  0  0  0  0  0  0  0  0  0
   28.8917   10.6752   64.5648 H   0  0  0  0  0  0  0  0  0  0  0  0
   30.9021    8.8636   64.7750 H   0  0  0  0  0  0  0  0  0  0  0  0
   29.6290    8.9063   65.9943 H   0  0  0  0  0  0  0  0  0  0  0  0
   30.5399    6.4700   64.4161 H   0  0  0  0  0  0  0  0  0  0  0  0
   30.8420    6.7855   66.1246 H   0  0  0  0  0  0  0  0  0  0  0  0
   28.0846    6.0512   63.6607 H   0  0  0  0  0  0  0  0  0  0  0  0
   26.8175    6.0980   64.8864 H   0  0  0  0  0  0  0  0  0  0  0  0
   27.1903    8.4899   65.2446 H   0  0  0  0  0  0  0  0  0  0  0  0
   26.8775    8.1767   63.5378 H   0  0  0  0  0  0  0  0  0  0  0  0
   24.4754   10.6993   58.5117 H   0  0  0  0  0  0  0  0  0  0  0  0
  1  2  1  0  0  0  0
  1 29  1  0  0  0  0
  1 30  1  0  0  0  0
  1 31  1  0  0  0  0
  2  3  1  0  0  0  0
  2  4  1  0  0  0  0
  2 32  1  0  0  0  0
  3 33  1  0  0  0  0
  3 34  1  0  0  0  0
  3 35  1  0  0  0  0
  4  5  1  0  0  0  0
  4 36  1  0  0  0  0
  5 28  1  0  0  0  0
  5  6  2  0  0  0  0
  6  7  1  0  0  0  0
  6 37  1  0  0  0  0
  7  8  1  0  0  0  0
  7 21  2  0  0  0  0
  8  9  1  0  0  0  0
  8 38  1  0  0  0  0
  9 10  1  0  0  0  0
  9 20  1  0  0  0  0
  9 11  1  0  0  0  0
 11 12  1  0  0  0  0
 11 39  1  0  0  0  0
 11 40  1  0  0  0  0
 12 13  1  0  0  0  0
 12 41  1  0  0  0  0
 12 42  1  0  0  0  0
 13 14  1  0  0  0  0
 13 15  1  0  0  0  0
 13 19  1  0  0  0  0
 15 16  1  0  0  0  0
 15 17  1  0  0  0  0
 15 18  1  0  0  0  0
 19 20  1  0  0  0  0
 19 43  1  0  0  0  0
 19 44  1  0  0  0  0
 20 45  1  0  0  0  0
 20 46  1  0  0  0  0
 21 22  1  0  0  0  0
 22 28  1  0  0  0  0
 22 23  2  0  0  0  0
 23 24  1  0  0  0  0
 23 26  1  0  0  0  0
 24 25  3  0  0  0  0
 26 27  2  0  0  0  0
 26 47  1  0  0  0  0
 27 28  1  0  0  0  0
M  CHG  1  15   1
M  END
> <Gold.Version>
5.1

> <Gold.Id.Protein>
unknown|15055|pdb

> <Gold.PLP.Fitness>
48.2011

> <Gold.PLP.PLP>
-48.2686

> <Gold.PLP.part.hbond>
-8.0000

> <Gold.PLP.part.metal>
0.0000

> <Gold.PLP.part.buried>
-0.2719

> <Gold.PLP.part.nonpolar>
-33.5129

> <Gold.PLP.part.repulsive>
0.0000

> <Gold.PLP.ligand.clash>
0.0000

> <Gold.PLP.ligand.torsion>
0.0338

> <Gold.Chemscore.Hbonds>
donor molecule, donor type, donor heavy atom, donor atom, acceptor molecule, acceptor atom, score
      L1  H    15    18       P1   605  1.00

> <Gold.Protein.ActiveResidues>
 GLU8    LYS9    ILE10   GLY11   GLU12   GLY13   THR14   TYR15   GLY16   VAL17  
 VAL18   TYR19   LYS20   VAL30   ALA31   LEU32   LYS33   VAL64   LYS65   LEU66  
 LEU78   VAL79   PHE80   GLU81   PHE82   LEU83   HIS84   GLN85   ASP86   LEU87  
 LYS89   HIS125  ASP127  LYS129  PRO130  GLN131  ASN132  LEU133  LEU134  ILE135 
 LEU143  ALA144  ASP145  PHE146  LEU148  GLU162  LEU298 

> <Gold.Protein.RotatedAtoms>

$$$$
unknown|ligand|mol|1|dock7
  -GOLD-  11 11713 33D 1   1.00000     0.00000

 47 49  0  0  0  0  0  0  0  0  2 V2000
   29.1189   14.7123   62.2865 C   0  0  0  0  0  0  0  0  0  0  0  0
   27.6213   14.8977   62.4517 C   0  0  0  0  0  0  0  0  0  0  0  0
   27.1985   16.3283   62.1697 C   0  0  0  0  0  0  0  0  0  0  0  0
   26.9066   13.9832   61.5608 N   0  0  0  0  0  0  0  0  0  0  0  0
   26.9991   12.5939   61.6479 C   0  0  0  0  0  0  0  0  0  0  0  0
   27.8046   12.0388   62.6311 C   0  0  0  0  0  0  0  0  0  0  0  0
   27.9283   10.6605   62.7493 C   0  0  0  0  0  0  0  0  0  0  0  0
   28.7462   10.1186   63.7410 N   0  0  0  0  0  0  0  0  0  0  0  0
   28.9311    8.6891   63.9421 C   0  0  0  0  0  0  0  0  0  0  0  0
   29.3015    8.2561   63.0129 H   0  0  0  0  0  0  0  0  0  0  0  0
   29.9560    8.4256   65.0416 C   0  0  0  0  0  0  0  0  0  0  0  0
   30.1396    6.9380   65.2881 C   0  0  0  0  0  0  0  0  0  0  0  0
   28.8164    6.2619   65.6351 C   0  0  0  0  0  0  0  0  0  0  0  0
   28.4468    6.6574   66.5813 H   0  0  0  0  0  0  0  0  0  0  0  0
   29.0207    4.7892   65.7996 N   0  3  0  0  0  0  0  0  0  0  0  0
   29.3582    4.5804   66.7272 H   0  0  0  0  0  0  0  0  0  0  0  0
   28.1536    4.2937   65.6570 H   0  0  0  0  0  0  0  0  0  0  0  0
   29.6956    4.4492   65.1312 H   0  0  0  0  0  0  0  0  0  0  0  0
   27.7870    6.5280   64.5406 C   0  0  0  0  0  0  0  0  0  0  0  0
   27.6078    8.0164   64.2959 C   0  0  0  0  0  0  0  0  0  0  0  0
   27.2904    9.7898   61.9529 N   0  0  0  0  0  0  0  0  0  0  0  0
   26.5055   10.3226   61.0024 C   0  0  0  0  0  0  0  0  0  0  0  0
   25.7117    9.7322   60.0192 C   0  0  0  0  0  0  0  0  0  0  0  0
   25.5489    8.3371   59.7937 C   0  0  0  0  0  0  0  0  0  0  0  0
   25.4500    7.2202   59.5858 N   0  0  0  0  0  0  0  0  0  0  0  0
   25.1333   10.7753   59.3301 C   0  0  0  0  0  0  0  0  0  0  0  0
   25.5073   11.9590   59.8099 N   0  0  0  0  0  0  0  0  0  0  0  0
   26.3519   11.6783   60.8391 N   0  0  0  0  0  0  0  0  0  0  0  0
   29.4053   14.9213   61.2558 H   0  0  0  0  0  0  0  0  0  0  0  0
   29.6507   15.3937   62.9504 H   0  0  0  0  0  0  0  0  0  0  0  0
   29.3934   13.6864   62.5327 H   0  0  0  0  0  0  0  0  0  0  0  0
   27.3539   14.6536   63.4795 H   0  0  0  0  0  0  0  0  0  0  0  0
   26.1242   16.4322   62.3209 H   0  0  0  0  0  0  0  0  0  0  0  0
   27.7217   17.0071   62.8433 H   0  0  0  0  0  0  0  0  0  0  0  0
   27.4416   16.5890   61.1396 H   0  0  0  0  0  0  0  0  0  0  0  0
   26.0870   14.3414   61.1842 H   0  0  0  0  0  0  0  0  0  0  0  0
   28.3432   12.6845   63.3088 H   0  0  0  0  0  0  0  0  0  0  0  0
   28.9120   10.6738   64.5191 H   0  0  0  0  0  0  0  0  0  0  0  0
   30.9109    8.8661   64.7548 H   0  0  0  0  0  0  0  0  0  0  0  0
   29.6263    8.9076   65.9620 H   0  0  0  0  0  0  0  0  0  0  0  0
   30.5579    6.4711   64.3963 H   0  0  0  0  0  0  0  0  0  0  0  0
   30.8432    6.7900   66.1071 H   0  0  0  0  0  0  0  0  0  0  0  0
   28.1108    6.0450   63.6186 H   0  0  0  0  0  0  0  0  0  0  0  0
   26.8322    6.0907   64.8323 H   0  0  0  0  0  0  0  0  0  0  0  0
   27.1958    8.4840   65.1902 H   0  0  0  0  0  0  0  0  0  0  0  0
   26.8997    8.1674   63.4810 H   0  0  0  0  0  0  0  0  0  0  0  0
   24.4547   10.6748   58.4961 H   0  0  0  0  0  0  0  0  0  0  0  0
  1  2  1  0  0  0  0
  1 29  1  0  0  0  0
  1 30  1  0  0  0  0
  1 31  1  0  0  0  0
  2  3  1  0  0  0  0
  2  4  1  0  0  0  0
  2 32  1  0  0  0  0
  3 33  1  0  0  0  0
  3 34  1  0  0  0  0
  3 35  1  0  0  0  0
  4  5  1  0  0  0  0
  4 36  1  0  0  0  0
  5 28  1  0  0  0  0
  5  6  2  0  0  0  0
  6  7  1  0  0  0  0
  6 37  1  0  0  0  0
  7  8  1  0  0  0  0
  7 21  2  0  0  0  0
  8  9  1  0  0  0  0
  8 38  1  0  0  0  0
  9 10  1  0  0  0  0
  9 20  1  0  0  0  0
  9 11  1  0  0  0  0
 11 12  1  0  0  0  0
 11 39  1  0  0  0  0
 11 40  1  0  0  0  0
 12 13  1  0  0  0  0
 12 41  1  0  0  0  0
 12 42  1  0  0  0  0
 13 14  1  0  0  0  0
 13 15  1  0  0  0  0
 13 19  1  0  0  0  0
 15 16  1  0  0  0  0
 15 17  1  0  0  0  0
 15 18  1  0  0  0  0
 19 20  1  0  0  0  0
 19 43  1  0  0  0  0
 19 44  1  0  0  0  0
 20 45  1  0  0  0  0
 20 46  1  0  0  0  0
 21 22  1  0  0  0  0
 22 28  1  0  0  0  0
 22 23  2  0  0  0  0
 23 24  1  0  0  0  0
 23 26  1  0  0  0  0
 24 25  3  0  0  0  0
 26 27  2  0  0  0  0
 26 47  1  0  0  0  0
 27 28  1  0  0  0  0
M  CHG  1  15   1
M  END
> <Gold.Version>
5.1

> <Gold.Id.Protein>
unknown|15055|pdb

> <Gold.PLP.Fitness>
47.9244

> <Gold.PLP.PLP>
-48.0110

> <Gold.PLP.part.hbond>
-8.0000

> <Gold.PLP.part.metal>
0.0000

> <Gold.PLP.part.buried>
-0.4930

> <Gold.PLP.part.nonpolar>
-33.5975

> <Gold.PLP.part.repulsive>
0.0000

> <Gold.PLP.ligand.clash>
0.0339

> <Gold.PLP.ligand.torsion>
0.0263

> <Gold.Chemscore.Hbonds>
donor molecule, donor type, donor heavy atom, donor atom, acceptor molecule, acceptor atom, score
      L1  H    15    16       P1   602  0.35
      L1  H    15    18       P1   605  0.10

> <Gold.Protein.ActiveResidues>
 GLU8    LYS9    ILE10   GLY11   GLU12   GLY13   THR14   TYR15   GLY16   VAL17  
 VAL18   TYR19   LYS20   VAL30   ALA31   LEU32   LYS33   VAL64   LYS65   LEU66  
 LEU78   VAL79   PHE80   GLU81   PHE82   LEU83   HIS84   GLN85   ASP86   LEU87  
 LYS89   HIS125  ASP127  LYS129  PRO130  GLN131  ASN132  LEU133  LEU134  ILE135 
 LEU143  ALA144  ASP145  PHE146  LEU148  GLU162  LEU298 

> <Gold.Protein.RotatedAtoms>

$$$$
unknown|ligand|mol|1|dock4
  -GOLD-  11 11713 33D 1   1.00000     0.00000

 47 49  0  0  0  0  0  0  0  0  2 V2000
   29.2002   14.9550   62.0556 C   0  0  0  0  0  0  0  0  0  0  0  0
   27.7165   15.1034   62.3402 C   0  0  0  0  0  0  0  0  0  0  0  0
   27.2437   16.5299   62.1250 C   0  0  0  0  0  0  0  0  0  0  0  0
   26.9536   14.1925   61.4863 N   0  0  0  0  0  0  0  0  0  0  0  0
   27.0234   12.8027   61.5869 C   0  0  0  0  0  0  0  0  0  0  0  0
   27.8529   12.2437   62.5476 C   0  0  0  0  0  0  0  0  0  0  0  0
   27.9551   10.8648   62.6780 C   0  0  0  0  0  0  0  0  0  0  0  0
   28.7976   10.3188   63.6467 N   0  0  0  0  0  0  0  0  0  0  0  0
   28.9630    8.8885   63.8583 C   0  0  0  0  0  0  0  0  0  0  0  0
   29.1149    8.4127   62.8895 H   0  0  0  0  0  0  0  0  0  0  0  0
   30.1824    8.6083   64.7321 C   0  0  0  0  0  0  0  0  0  0  0  0
   30.3535    7.1213   64.9905 C   0  0  0  0  0  0  0  0  0  0  0  0
   29.1052    6.5178   65.6277 C   0  0  0  0  0  0  0  0  0  0  0  0
   28.9561    6.9567   66.6144 H   0  0  0  0  0  0  0  0  0  0  0  0
   29.2803    5.0424   65.8013 N   0  3  0  0  0  0  0  0  0  0  0  0
   30.1811    4.8385   66.2073 H   0  0  0  0  0  0  0  0  0  0  0  0
   28.5656    4.6704   66.4084 H   0  0  0  0  0  0  0  0  0  0  0  0
   29.2185    4.5720   64.9109 H   0  0  0  0  0  0  0  0  0  0  0  0
   27.8826    6.8009   64.7597 C   0  0  0  0  0  0  0  0  0  0  0  0
   27.7161    8.2886   64.5020 C   0  0  0  0  0  0  0  0  0  0  0  0
   27.2732    9.9973   61.9152 N   0  0  0  0  0  0  0  0  0  0  0  0
   26.4650   10.5340   60.9867 C   0  0  0  0  0  0  0  0  0  0  0  0
   25.6259    9.9477   60.0395 C   0  0  0  0  0  0  0  0  0  0  0  0
   25.4293    8.5534   59.8368 C   0  0  0  0  0  0  0  0  0  0  0  0
   25.2365    7.4443   59.6538 N   0  0  0  0  0  0  0  0  0  0  0  0
   25.0429   10.9936   59.3587 C   0  0  0  0  0  0  0  0  0  0  0  0
   25.4555   12.1754   59.8106 N   0  0  0  0  0  0  0  0  0  0  0  0
   26.3309   11.8905   60.8126 N   0  0  0  0  0  0  0  0  0  0  0  0
   29.4013   15.1925   61.0109 H   0  0  0  0  0  0  0  0  0  0  0  0
   29.7679   15.6337   62.6920 H   0  0  0  0  0  0  0  0  0  0  0  0
   29.5141   13.9305   62.2560 H   0  0  0  0  0  0  0  0  0  0  0  0
   27.5350   14.8314   63.3797 H   0  0  0  0  0  0  0  0  0  0  0  0
   26.1825   16.6065   62.3611 H   0  0  0  0  0  0  0  0  0  0  0  0
   27.8036   17.2056   62.7716 H   0  0  0  0  0  0  0  0  0  0  0  0
   27.4005   16.8180   61.0854 H   0  0  0  0  0  0  0  0  0  0  0  0
   26.1280   14.5618   61.1346 H   0  0  0  0  0  0  0  0  0  0  0  0
   28.4272   12.8868   63.1979 H   0  0  0  0  0  0  0  0  0  0  0  0
   29.0013   10.8796   64.4116 H   0  0  0  0  0  0  0  0  0  0  0  0
   31.0738    8.9955   64.2384 H   0  0  0  0  0  0  0  0  0  0  0  0
   30.0704    9.1309   65.6821 H   0  0  0  0  0  0  0  0  0  0  0  0
   30.5587    6.6104   64.0497 H   0  0  0  0  0  0  0  0  0  0  0  0
   31.2053    6.9637   65.6519 H   0  0  0  0  0  0  0  0  0  0  0  0
   27.9884    6.2776   63.8094 H   0  0  0  0  0  0  0  0  0  0  0  0
   26.9924    6.4171   65.2580 H   0  0  0  0  0  0  0  0  0  0  0  0
   27.5176    8.8000   65.4440 H   0  0  0  0  0  0  0  0  0  0  0  0
   26.8609    8.4495   63.8455 H   0  0  0  0  0  0  0  0  0  0  0  0
   24.3332   10.8964   58.5505 H   0  0  0  0  0  0  0  0  0  0  0  0
  1  2  1  0  0  0  0
  1 29  1  0  0  0  0
  1 30  1  0  0  0  0
  1 31  1  0  0  0  0
  2  3  1  0  0  0  0
  2  4  1  0  0  0  0
  2 32  1  0  0  0  0
  3 33  1  0  0  0  0
  3 34  1  0  0  0  0
  3 35  1  0  0  0  0
  4  5  1  0  0  0  0
  4 36  1  0  0  0  0
  5 28  1  0  0  0  0
  5  6  2  0  0  0  0
  6  7  1  0  0  0  0
  6 37  1  0  0  0  0
  7  8  1  0  0  0  0
  7 21  2  0  0  0  0
  8  9  1  0  0  0  0
  8 38  1  0  0  0  0
  9 10  1  0  0  0  0
  9 20  1  0  0  0  0
  9 11  1  0  0  0  0
 11 12  1  0  0  0  0
 11 39  1  0  0  0  0
 11 40  1  0  0  0  0
 12 13  1  0  0  0  0
 12 41  1  0  0  0  0
 12 42  1  0  0  0  0
 13 14  1  0  0  0  0
 13 15  1  0  0  0  0
 13 19  1  0  0  0  0
 15 16  1  0  0  0  0
 15 17  1  0  0  0  0
 15 18  1  0  0  0  0
 19 20  1  0  0  0  0
 19 43  1  0  0  0  0
 19 44  1  0  0  0  0
 20 45  1  0  0  0  0
 20 46  1  0  0  0  0
 21 22  1  0  0  0  0
 22 28  1  0  0  0  0
 22 23  2  0  0  0  0
 23 24  1  0  0  0  0
 23 26  1  0  0  0  0
 24 25  3  0  0  0  0
 26 27  2  0  0  0  0
 26 47  1  0  0  0  0
 27 28  1  0  0  0  0
M  CHG  1  15   1
M  END
> <Gold.Version>
5.1

> <Gold.Id.Protein>
unknown|15055|pdb

> <Gold.PLP.Fitness>
46.9709

> <Gold.PLP.PLP>
-47.3783

> <Gold.PLP.part.hbond>
-8.0000

> <Gold.PLP.part.metal>
0.0000

> <Gold.PLP.part.buried>
0.3729

> <Gold.PLP.part.nonpolar>
-32.6589

> <Gold.PLP.part.repulsive>
0.0000

> <Gold.PLP.ligand.clash>
0.0000

> <Gold.PLP.ligand.torsion>
0.2037

> <Gold.Chemscore.Hbonds>
donor molecule, donor type, donor heavy atom, donor atom, acceptor molecule, acceptor atom, score
      L1  H    15    16       P1   605  1.00

> <Gold.Protein.ActiveResidues>
 GLU8    LYS9    ILE10   GLY11   GLU12   GLY13   THR14   TYR15   GLY16   VAL17  
 VAL18   TYR19   LYS20   VAL30   ALA31   LEU32   LYS33   VAL64   LYS65   LEU66  
 LEU78   VAL79   PHE80   GLU81   PHE82   LEU83   HIS84   GLN85   ASP86   LEU87  
 LYS89   HIS125  ASP127  LYS129  PRO130  GLN131  ASN132  LEU133  LEU134  ILE135 
 LEU143  ALA144  ASP145  PHE146  LEU148  GLU162  LEU298 

> <Gold.Protein.RotatedAtoms>

$$$$
unknown|ligand|mol|1|dock8
  -GOLD-  11 11713 33D 1   1.00000     0.00000

 47 49  0  0  0  0  0  0  0  0  2 V2000
   25.2013    3.2957   63.9700 C   0  0  0  0  0  0  0  0  0  0  0  0
   26.4078    4.1551   64.3020 C   0  0  0  0  0  0  0  0  0  0  0  0
   27.6895    3.5622   63.7449 C   0  0  0  0  0  0  0  0  0  0  0  0
   26.2149    5.5065   63.7752 N   0  0  0  0  0  0  0  0  0  0  0  0
   27.0972    6.5601   64.0159 C   0  0  0  0  0  0  0  0  0  0  0  0
   28.2234    6.3242   64.7902 C   0  0  0  0  0  0  0  0  0  0  0  0
   29.1246    7.3465   65.0577 C   0  0  0  0  0  0  0  0  0  0  0  0
   30.2501    7.0933   65.8421 N   0  0  0  0  0  0  0  0  0  0  0  0
   31.2487    8.1003   66.1688 C   0  0  0  0  0  0  0  0  0  0  0  0
   31.9731    7.6574   66.8524 H   0  0  0  0  0  0  0  0  0  0  0  0
   31.9852    8.5591   64.9133 C   0  0  0  0  0  0  0  0  0  0  0  0
   33.0108    9.6339   65.2297 C   0  0  0  0  0  0  0  0  0  0  0  0
   32.3689   10.8310   65.9250 C   0  0  0  0  0  0  0  0  0  0  0  0
   31.6655   11.3093   65.2431 H   0  0  0  0  0  0  0  0  0  0  0  0
   33.4161   11.8361   66.2865 N   0  3  0  0  0  0  0  0  0  0  0  0
   33.3743   12.0521   67.2711 H   0  0  0  0  0  0  0  0  0  0  0  0
   34.3362   11.4790   66.0774 H   0  0  0  0  0  0  0  0  0  0  0  0
   33.2803   12.6903   65.7671 H   0  0  0  0  0  0  0  0  0  0  0  0
   31.6265   10.3755   67.1779 C   0  0  0  0  0  0  0  0  0  0  0  0
   30.6034    9.2995   66.8576 C   0  0  0  0  0  0  0  0  0  0  0  0
   28.9831    8.5972   64.5938 N   0  0  0  0  0  0  0  0  0  0  0  0
   27.8965    8.8292   63.8396 C   0  0  0  0  0  0  0  0  0  0  0  0
   27.4390    9.9844   63.2060 C   0  0  0  0  0  0  0  0  0  0  0  0
   28.0696   11.2595   63.2219 C   0  0  0  0  0  0  0  0  0  0  0  0
   28.5698   12.2830   63.2758 N   0  0  0  0  0  0  0  0  0  0  0  0
   26.2678    9.6258   62.5760 C   0  0  0  0  0  0  0  0  0  0  0  0
   25.9681    8.3439   62.7708 N   0  0  0  0  0  0  0  0  0  0  0  0
   26.9718    7.8552   63.5489 N   0  0  0  0  0  0  0  0  0  0  0  0
   25.0723    3.2424   62.8890 H   0  0  0  0  0  0  0  0  0  0  0  0
   25.3455    2.2893   64.3628 H   0  0  0  0  0  0  0  0  0  0  0  0
   24.3056    3.7286   64.4159 H   0  0  0  0  0  0  0  0  0  0  0  0
   26.4985    4.2197   65.3861 H   0  0  0  0  0  0  0  0  0  0  0  0
   28.5369    4.1892   64.0215 H   0  0  0  0  0  0  0  0  0  0  0  0
   27.8388    2.5608   64.1488 H   0  0  0  0  0  0  0  0  0  0  0  0
   27.6275    3.5038   62.6582 H   0  0  0  0  0  0  0  0  0  0  0  0
   25.6961    5.5525   62.9564 H   0  0  0  0  0  0  0  0  0  0  0  0
   28.3993    5.3371   65.1915 H   0  0  0  0  0  0  0  0  0  0  0  0
   30.5586    6.1742   65.8759 H   0  0  0  0  0  0  0  0  0  0  0  0
   32.4848    7.7039   64.4581 H   0  0  0  0  0  0  0  0  0  0  0  0
   31.2625    8.9475   64.1956 H   0  0  0  0  0  0  0  0  0  0  0  0
   33.7857    9.2181   65.8739 H   0  0  0  0  0  0  0  0  0  0  0  0
   33.4838    9.9672   64.3061 H   0  0  0  0  0  0  0  0  0  0  0  0
   32.3456    9.9891   67.9003 H   0  0  0  0  0  0  0  0  0  0  0  0
   31.1240   11.2316   67.6281 H   0  0  0  0  0  0  0  0  0  0  0  0
   29.8323    9.7139   66.2080 H   0  0  0  0  0  0  0  0  0  0  0  0
   30.1244    8.9686   67.7792 H   0  0  0  0  0  0  0  0  0  0  0  0
   25.6461   10.2848   61.9882 H   0  0  0  0  0  0  0  0  0  0  0  0
  1  2  1  0  0  0  0
  1 29  1  0  0  0  0
  1 30  1  0  0  0  0
  1 31  1  0  0  0  0
  2  3  1  0  0  0  0
  2  4  1  0  0  0  0
  2 32  1  0  0  0  0
  3 33  1  0  0  0  0
  3 34  1  0  0  0  0
  3 35  1  0  0  0  0
  4  5  1  0  0  0  0
  4 36  1  0  0  0  0
  5 28  1  0  0  0  0
  5  6  2  0  0  0  0
  6  7  1  0  0  0  0
  6 37  1  0  0  0  0
  7  8  1  0  0  0  0
  7 21  2  0  0  0  0
  8  9  1  0  0  0  0
  8 38  1  0  0  0  0
  9 10  1  0  0  0  0
  9 20  1  0  0  0  0
  9 11  1  0  0  0  0
 11 12  1  0  0  0  0
 11 39  1  0  0  0  0
 11 40  1  0  0  0  0
 12 13  1  0  0  0  0
 12 41  1  0  0  0  0
 12 42  1  0  0  0  0
 13 14  1  0  0  0  0
 13 15  1  0  0  0  0
 13 19  1  0  0  0  0
 15 16  1  0  0  0  0
 15 17  1  0  0  0  0
 15 18  1  0  0  0  0
 19 20  1  0  0  0  0
 19 43  1  0  0  0  0
 19 44  1  0  0  0  0
 20 45  1  0  0  0  0
 20 46  1  0  0  0  0
 21 22  1  0  0  0  0
 22 28  1  0  0  0  0
 22 23  2  0  0  0  0
 23 24  1  0  0  0  0
 23 26  1  0  0  0  0
 24 25  3  0  0  0  0
 26 27  2  0  0  0  0
 26 47  1  0  0  0  0
 27 28  1  0  0  0  0
M  CHG  1  15   1
M  END
> <Gold.Version>
5.1

> <Gold.Id.Protein>
unknown|15055|pdb

> <Gold.PLP.Fitness>
44.4209

> <Gold.PLP.PLP>
-44.4974

> <Gold.PLP.part.hbond>
-3.9804

> <Gold.PLP.part.metal>
0.0000

> <Gold.PLP.part.buried>
0.1882

> <Gold.PLP.part.nonpolar>
-38.4775

> <Gold.PLP.part.repulsive>
0.0000

> <Gold.PLP.ligand.clash>
0.0000

> <Gold.PLP.ligand.torsion>
0.0382

> <Gold.Chemscore.Hbonds>
donor molecule, donor type, donor heavy atom, donor atom, acceptor molecule, acceptor atom, score
      L1  H     8    38       P1   605  0.95

> <Gold.Protein.ActiveResidues>
 GLU8    LYS9    ILE10   GLY11   GLU12   GLY13   THR14   TYR15   GLY16   VAL17  
 VAL18   TYR19   LYS20   VAL30   ALA31   LEU32   LYS33   VAL64   LYS65   LEU66  
 LEU78   VAL79   PHE80   GLU81   PHE82   LEU83   HIS84   GLN85   ASP86   LEU87  
 LYS89   HIS125  ASP127  LYS129  PRO130  GLN131  ASN132  LEU133  LEU134  ILE135 
 LEU143  ALA144  ASP145  PHE146  LEU148  GLU162  LEU298 

> <Gold.Protein.RotatedAtoms>

$$$$
unknown|ligand|mol|1|dock9
  -GOLD-  11 11713 33D 1   1.00000     0.00000

 47 49  0  0  0  0  0  0  0  0  2 V2000
   25.1986    3.3196   63.9552 C   0  0  0  0  0  0  0  0  0  0  0  0
   26.4038    4.1745   64.3033 C   0  0  0  0  0  0  0  0  0  0  0  0
   27.6906    3.5765   63.7638 C   0  0  0  0  0  0  0  0  0  0  0  0
   26.2232    5.5264   63.7735 N   0  0  0  0  0  0  0  0  0  0  0  0
   27.1068    6.5764   64.0248 C   0  0  0  0  0  0  0  0  0  0  0  0
   28.2221    6.3362   64.8133 C   0  0  0  0  0  0  0  0  0  0  0  0
   29.1242    7.3548   65.0918 C   0  0  0  0  0  0  0  0  0  0  0  0
   30.2387    7.0973   65.8903 N   0  0  0  0  0  0  0  0  0  0  0  0
   31.2373    8.1002   66.2291 C   0  0  0  0  0  0  0  0  0  0  0  0
   31.9814    7.6391   66.8787 H   0  0  0  0  0  0  0  0  0  0  0  0
   31.9396    8.6100   64.9738 C   0  0  0  0  0  0  0  0  0  0  0  0
   32.9645    9.6813   65.3041 C   0  0  0  0  0  0  0  0  0  0  0  0
   32.3307   10.8472   66.0574 C   0  0  0  0  0  0  0  0  0  0  0  0
   31.6074   11.3438   65.4103 H   0  0  0  0  0  0  0  0  0  0  0  0
   33.3788   11.8475   66.4297 N   0  3  0  0  0  0  0  0  0  0  0  0
   32.9647   12.6307   66.9124 H   0  0  0  0  0  0  0  0  0  0  0  0
   34.0684   11.4285   67.0353 H   0  0  0  0  0  0  0  0  0  0  0  0
   33.8466   12.1927   65.6052 H   0  0  0  0  0  0  0  0  0  0  0  0
   31.6224   10.3408   67.3105 C   0  0  0  0  0  0  0  0  0  0  0  0
   30.5999    9.2684   66.9761 C   0  0  0  0  0  0  0  0  0  0  0  0
   28.9938    8.6059   64.6256 N   0  0  0  0  0  0  0  0  0  0  0  0
   27.9178    8.8421   63.8577 C   0  0  0  0  0  0  0  0  0  0  0  0
   27.4731    9.9989   63.2179 C   0  0  0  0  0  0  0  0  0  0  0  0
   28.1088   11.2714   63.2412 C   0  0  0  0  0  0  0  0  0  0  0  0
   28.6259   12.2861   63.3004 N   0  0  0  0  0  0  0  0  0  0  0  0
   26.3085    9.6450   62.5733 C   0  0  0  0  0  0  0  0  0  0  0  0
   26.0010    8.3644   62.7650 N   0  0  0  0  0  0  0  0  0  0  0  0
   26.9927    7.8719   63.5558 N   0  0  0  0  0  0  0  0  0  0  0  0
   25.0840    3.2664   62.8725 H   0  0  0  0  0  0  0  0  0  0  0  0
   25.3337    2.3128   64.3501 H   0  0  0  0  0  0  0  0  0  0  0  0
   24.2986    3.7560   64.3887 H   0  0  0  0  0  0  0  0  0  0  0  0
   26.4800    4.2391   65.3884 H   0  0  0  0  0  0  0  0  0  0  0  0
   28.5366    4.2004   64.0517 H   0  0  0  0  0  0  0  0  0  0  0  0
   27.8306    2.5747   64.1699 H   0  0  0  0  0  0  0  0  0  0  0  0
   27.6432    3.5180   62.6763 H   0  0  0  0  0  0  0  0  0  0  0  0
   25.7149    5.5743   62.9483 H   0  0  0  0  0  0  0  0  0  0  0  0
   28.3888    5.3485   65.2173 H   0  0  0  0  0  0  0  0  0  0  0  0
   30.5428    6.1769   65.9284 H   0  0  0  0  0  0  0  0  0  0  0  0
   32.4345    7.7759   64.4761 H   0  0  0  0  0  0  0  0  0  0  0  0
   31.1968    9.0178   64.2881 H   0  0  0  0  0  0  0  0  0  0  0  0
   33.7579    9.2492   65.9140 H   0  0  0  0  0  0  0  0  0  0  0  0
   33.4124   10.0516   64.3821 H   0  0  0  0  0  0  0  0  0  0  0  0
   32.3617    9.9347   68.0010 H   0  0  0  0  0  0  0  0  0  0  0  0
   31.1245   11.1758   67.8032 H   0  0  0  0  0  0  0  0  0  0  0  0
   29.8102    9.6994   66.3606 H   0  0  0  0  0  0  0  0  0  0  0  0
   30.1459    8.9006   67.8964 H   0  0  0  0  0  0  0  0  0  0  0  0
   25.6969   10.3062   61.9775 H   0  0  0  0  0  0  0  0  0  0  0  0
  1  2  1  0  0  0  0
  1 29  1  0  0  0  0
  1 30  1  0  0  0  0
  1 31  1  0  0  0  0
  2  3  1  0  0  0  0
  2  4  1  0  0  0  0
  2 32  1  0  0  0  0
  3 33  1  0  0  0  0
  3 34  1  0  0  0  0
  3 35  1  0  0  0  0
  4  5  1  0  0  0  0
  4 36  1  0  0  0  0
  5 28  1  0  0  0  0
  5  6  2  0  0  0  0
  6  7  1  0  0  0  0
  6 37  1  0  0  0  0
  7  8  1  0  0  0  0
  7 21  2  0  0  0  0
  8  9  1  0  0  0  0
  8 38  1  0  0  0  0
  9 10  1  0  0  0  0
  9 20  1  0  0  0  0
  9 11  1  0  0  0  0
 11 12  1  0  0  0  0
 11 39  1  0  0  0  0
 11 40  1  0  0  0  0
 12 13  1  0  0  0  0
 12 41  1  0  0  0  0
 12 42  1  0  0  0  0
 13 14  1  0  0  0  0
 13 15  1  0  0  0  0
 13 19  1  0  0  0  0
 15 16  1  0  0  0  0
 15 17  1  0  0  0  0
 15 18  1  0  0  0  0
 19 20  1  0  0  0  0
 19 43  1  0  0  0  0
 19 44  1  0  0  0  0
 20 45  1  0  0  0  0
 20 46  1  0  0  0  0
 21 22  1  0  0  0  0
 22 28  1  0  0  0  0
 22 23  2  0  0  0  0
 23 24  1  0  0  0  0
 23 26  1  0  0  0  0
 24 25  3  0  0  0  0
 26 27  2  0  0  0  0
 26 47  1  0  0  0  0
 27 28  1  0  0  0  0
M  CHG  1  15   1
M  END
> <Gold.Version>
5.1

> <Gold.Id.Protein>
unknown|15055|pdb

> <Gold.PLP.Fitness>
44.3837

> <Gold.PLP.PLP>
-44.4269

> <Gold.PLP.part.hbond>
-3.9736

> <Gold.PLP.part.metal>
0.0000

> <Gold.PLP.part.buried>
0.3685

> <Gold.PLP.part.nonpolar>
-38.5145

> <Gold.PLP.part.repulsive>
0.0000

> <Gold.PLP.ligand.clash>
0.0009

> <Gold.PLP.ligand.torsion>
0.0211

> <Gold.Chemscore.Hbonds>
donor molecule, donor type, donor heavy atom, donor atom, acceptor molecule, acceptor atom, score
      L1  H     8    38       P1   605  0.96

> <Gold.Protein.ActiveResidues>
 GLU8    LYS9    ILE10   GLY11   GLU12   GLY13   THR14   TYR15   GLY16   VAL17  
 VAL18   TYR19   LYS20   VAL30   ALA31   LEU32   LYS33   VAL64   LYS65   LEU66  
 LEU78   VAL79   PHE80   GLU81   PHE82   LEU83   HIS84   GLN85   ASP86   LEU87  
 LYS89   HIS125  ASP127  LYS129  PRO130  GLN131  ASN132  LEU133  LEU134  ILE135 
 LEU143  ALA144  ASP145  PHE146  LEU148  GLU162  LEU298 

> <Gold.Protein.RotatedAtoms>

$$$$
unknown|ligand|mol|1|dock6
  -GOLD-  11 11713 33D 1   1.00000     0.00000

 47 49  0  0  0  0  0  0  0  0  2 V2000
   23.6099    9.9670   60.8571 C   0  0  0  0  0  0  0  0  0  0  0  0
   24.4436   10.4606   59.6884 C   0  0  0  0  0  0  0  0  0  0  0  0
   23.5800   10.8008   58.4871 C   0  0  0  0  0  0  0  0  0  0  0  0
   25.2187   11.6341   60.0921 N   0  0  0  0  0  0  0  0  0  0  0  0
   26.1870   11.6094   61.0962 C   0  0  0  0  0  0  0  0  0  0  0  0
   26.4405   10.4128   61.7499 C   0  0  0  0  0  0  0  0  0  0  0  0
   27.3929   10.3458   62.7585 C   0  0  0  0  0  0  0  0  0  0  0  0
   27.6324    9.1352   63.4090 N   0  0  0  0  0  0  0  0  0  0  0  0
   28.6134    8.9707   64.4714 C   0  0  0  0  0  0  0  0  0  0  0  0
   28.3025    9.5754   65.3234 H   0  0  0  0  0  0  0  0  0  0  0  0
   28.6911    7.5126   64.9150 C   0  0  0  0  0  0  0  0  0  0  0  0
   29.7330    7.3151   66.0024 C   0  0  0  0  0  0  0  0  0  0  0  0
   31.1088    7.7975   65.5520 C   0  0  0  0  0  0  0  0  0  0  0  0
   31.4528    7.1809   64.7214 H   0  0  0  0  0  0  0  0  0  0  0  0
   32.0931    7.6559   66.6695 N   0  3  0  0  0  0  0  0  0  0  0  0
   32.5726    6.7704   66.6084 H   0  0  0  0  0  0  0  0  0  0  0  0
   32.7802    8.3936   66.6312 H   0  0  0  0  0  0  0  0  0  0  0  0
   31.6242    7.7033   67.5615 H   0  0  0  0  0  0  0  0  0  0  0  0
   31.0341    9.2537   65.1021 C   0  0  0  0  0  0  0  0  0  0  0  0
   29.9898    9.4473   64.0161 C   0  0  0  0  0  0  0  0  0  0  0  0
   28.1232   11.3981   63.1571 N   0  0  0  0  0  0  0  0  0  0  0  0
   27.8845   12.5580   62.5236 C   0  0  0  0  0  0  0  0  0  0  0  0
   28.4433   13.8270   62.6743 C   0  0  0  0  0  0  0  0  0  0  0  0
   29.4609   14.1948   63.5979 C   0  0  0  0  0  0  0  0  0  0  0  0
   30.2659   14.5295   64.3332 N   0  0  0  0  0  0  0  0  0  0  0  0
   27.8061   14.6274   61.7521 C   0  0  0  0  0  0  0  0  0  0  0  0
   26.9009   13.9535   61.0467 N   0  0  0  0  0  0  0  0  0  0  0  0
   26.9506   12.6799   61.5230 N   0  0  0  0  0  0  0  0  0  0  0  0
   22.9266   10.7521   61.1807 H   0  0  0  0  0  0  0  0  0  0  0  0
   23.0329    9.0928   60.5558 H   0  0  0  0  0  0  0  0  0  0  0  0
   24.2620    9.6961   61.6876 H   0  0  0  0  0  0  0  0  0  0  0  0
   25.1394    9.6721   59.4027 H   0  0  0  0  0  0  0  0  0  0  0  0
   24.2103   11.1275   57.6602 H   0  0  0  0  0  0  0  0  0  0  0  0
   23.0135    9.9219   58.1793 H   0  0  0  0  0  0  0  0  0  0  0  0
   22.8863   11.6008   58.7457 H   0  0  0  0  0  0  0  0  0  0  0  0
   25.3267   12.3065   59.4007 H   0  0  0  0  0  0  0  0  0  0  0  0
   25.8897    9.5257   61.4742 H   0  0  0  0  0  0  0  0  0  0  0  0
   27.4071    8.3276   62.9212 H   0  0  0  0  0  0  0  0  0  0  0  0
   27.7155    7.1983   65.2862 H   0  0  0  0  0  0  0  0  0  0  0  0
   28.9407    6.8894   64.0562 H   0  0  0  0  0  0  0  0  0  0  0  0
   29.4348    7.8649   66.8953 H   0  0  0  0  0  0  0  0  0  0  0  0
   29.7911    6.2581   66.2617 H   0  0  0  0  0  0  0  0  0  0  0  0
   30.7878    9.8815   65.9585 H   0  0  0  0  0  0  0  0  0  0  0  0
   32.0094    9.5636   64.7270 H   0  0  0  0  0  0  0  0  0  0  0  0
   30.2850    8.8919   63.1258 H   0  0  0  0  0  0  0  0  0  0  0  0
   29.9340   10.5030   63.7506 H   0  0  0  0  0  0  0  0  0  0  0  0
   27.9970   15.6792   61.5981 H   0  0  0  0  0  0  0  0  0  0  0  0
  1  2  1  0  0  0  0
  1 29  1  0  0  0  0
  1 30  1  0  0  0  0
  1 31  1  0  0  0  0
  2  3  1  0  0  0  0
  2  4  1  0  0  0  0
  2 32  1  0  0  0  0
  3 33  1  0  0  0  0
  3 34  1  0  0  0  0
  3 35  1  0  0  0  0
  4  5  1  0  0  0  0
  4 36  1  0  0  0  0
  5 28  1  0  0  0  0
  5  6  2  0  0  0  0
  6  7  1  0  0  0  0
  6 37  1  0  0  0  0
  7  8  1  0  0  0  0
  7 21  2  0  0  0  0
  8  9  1  0  0  0  0
  8 38  1  0  0  0  0
  9 10  1  0  0  0  0
  9 20  1  0  0  0  0
  9 11  1  0  0  0  0
 11 12  1  0  0  0  0
 11 39  1  0  0  0  0
 11 40  1  0  0  0  0
 12 13  1  0  0  0  0
 12 41  1  0  0  0  0
 12 42  1  0  0  0  0
 13 14  1  0  0  0  0
 13 15  1  0  0  0  0
 13 19  1  0  0  0  0
 15 16  1  0  0  0  0
 15 17  1  0  0  0  0
 15 18  1  0  0  0  0
 19 20  1  0  0  0  0
 19 43  1  0  0  0  0
 19 44  1  0  0  0  0
 20 45  1  0  0  0  0
 20 46  1  0  0  0  0
 21 22  1  0  0  0  0
 22 28  1  0  0  0  0
 22 23  2  0  0  0  0
 23 24  1  0  0  0  0
 23 26  1  0  0  0  0
 24 25  3  0  0  0  0
 26 27  2  0  0  0  0
 26 47  1  0  0  0  0
 27 28  1  0  0  0  0
M  CHG  1  15   1
M  END
> <Gold.Version>
5.1

> <Gold.Id.Protein>
unknown|15055|pdb

> <Gold.PLP.Fitness>
40.1671

> <Gold.PLP.PLP>
-40.2429

> <Gold.PLP.part.hbond>
-6.0000

> <Gold.PLP.part.metal>
0.0000

> <Gold.PLP.part.buried>
1.4822

> <Gold.PLP.part.nonpolar>
-32.4297

> <Gold.PLP.part.repulsive>
0.0000

> <Gold.PLP.ligand.clash>
0.0000

> <Gold.PLP.ligand.torsion>
0.0379

> <Gold.Chemscore.Hbonds>
donor molecule, donor type, donor heavy atom, donor atom, acceptor molecule, acceptor atom, score
      L1  H    15    16       P1   605  0.74

> <Gold.Protein.ActiveResidues>
 GLU8    LYS9    ILE10   GLY11   GLU12   GLY13   THR14   TYR15   GLY16   VAL17  
 VAL18   TYR19   LYS20   VAL30   ALA31   LEU32   LYS33   VAL64   LYS65   LEU66  
 LEU78   VAL79   PHE80   GLU81   PHE82   LEU83   HIS84   GLN85   ASP86   LEU87  
 LYS89   HIS125  ASP127  LYS129  PRO130  GLN131  ASN132  LEU133  LEU134  ILE135 
 LEU143  ALA144  ASP145  PHE146  LEU148  GLU162  LEU298 

> <Gold.Protein.RotatedAtoms>

$$$$
